
     RDKit          3D

 10  9  0  0  0  0  0  0  0  0999 V2000
   -2.0785    7.6702    6.7339 O   0  0  0  0  0  0  0  0  0  0  0  0
   -2.1316    6.4956    6.4888 C   0  0  0  0  0  0  0  0  0  0  0  0
   -3.2826    5.8858    5.7870 C   0  0  0  0  0  0  0  0  0  0  0  0
   -4.1867    6.8663    5.3935 O   0  0  0  0  0  0  0  0  0  0  0  0
   -1.0042    5.6214    6.9032 C   0  0  0  0  0  0  0  0  0  0  0  0
   -0.0503    6.3352    7.6323 O   0  0  0  0  0  0  0  0  0  0  0  0
    0.8877    5.1906    8.4457 P   0  0  2  0  0  5  0  0  0  0  0  0
    2.1375    5.8510    8.9719 O   0  0  0  0  0  0  0  0  0  0  0  0
    1.2571    3.9334    7.3566 O   0  0  0  0  0  0  0  0  0  0  0  0
   -0.0275    4.5296    9.7006 O   0  0  0  0  0  0  0  0  0  0  0  0
  1  2  2  0
  2  3  1  0
  3  4  1  0
  2  5  1  0
  5  6  1  0
  6  7  1  0
  7  8  2  0
  7  9  1  6
  7 10  1  0
M  END
$$$$
